%Chk=HEM_small_opt.chk
%Mem=3000MB
%NProcShared=2
# B3LYP/6-31G* Geom=PrintInputOrient Integral=(Grid=UltraFine) Opt
 
CLR
 
1  2
C          -2.161   -0.125    0.490
C           1.458   -3.419    0.306
C           4.701    0.169   -0.069
C           1.075    3.460    0.018
C          -1.436   -1.305    0.380
C          -2.015   -2.587    0.320
C          -1.009   -3.500    0.270
C           0.216   -2.803    0.298
C          -1.175   -4.996    0.197
C          -3.490   -2.893    0.314
C          -3.998   -2.926   -1.129
C          -5.473   -3.232   -1.136
O          -6.059   -3.405   -0.094
O          -6.137   -3.311   -2.300
C           2.664   -2.707    0.308
C           3.937   -3.328    0.418
C           4.874   -2.341    0.314
C           4.117   -1.079    0.139
C           4.203   -4.798    0.613
C           6.339   -2.497    0.365
C           6.935   -3.419   -0.385
C           3.964    1.345   -0.174
C           4.531    2.601   -0.445
C           3.510    3.536   -0.437
C           2.304    2.846   -0.139
C           5.991    2.880   -0.697
C           3.649    4.981   -0.692
C           4.201    5.407   -1.823
C          -0.102    2.753    0.298
C          -1.382    3.388    0.641
C          -2.283    2.389    0.774
C          -1.561    1.137    0.511
C          -1.639    4.863    0.811
C          -3.741    2.532    1.123
C          -4.573    2.563   -0.160
C          -6.032    2.706    0.189
O          -6.372    2.776    1.347
O          -6.954    2.755   -0.785
N          -0.068   -1.456    0.321
N           2.820   -1.386    0.207
N           2.604    1.506   -0.033
N          -0.276    1.431    0.298
H           1.498   -4.508    0.309
H           5.786    0.229   -0.153
H           1.018    4.543   -0.083
H          -1.220   -5.306   -0.847
H          -0.328   -5.480    0.683
H          -2.097   -5.285    0.702
H          -3.662   -3.862    0.782
H          -4.024   -2.121    0.869
H          -3.825   -1.956   -1.597
H          -3.464   -3.697   -1.684
H           3.256   -5.336    0.660
H           4.794   -5.175   -0.222
H           4.752   -4.948    1.543
H           6.927   -1.863    1.011
H           7.994   -3.600   -0.277
H           6.360   -3.987   -1.102
H           6.554    1.949   -0.639
H           6.110    3.316   -1.689
H           6.362    3.578    0.053
H           3.303    5.694    0.042
H           4.614    4.696   -2.523
H           4.235    6.464   -2.043
H          -0.715    5.415    0.639
H          -2.394    5.185    0.094
H          -1.994    5.055    1.824
H          -4.052    1.687    1.738
H          -3.893    3.459    1.677
H          -4.262    3.408   -0.775
H          -4.421    1.636   -0.714
H          -7.082   -3.510   -2.254
H          -7.877    2.847   -0.512
H          -3.246   -0.188    0.567
Fe          1.010    0.157   -0.060
 
 
